file 167837 1670022888                                          
version 3
run Default-0-20221202-23:13:18-16051
attr configname Default
attr datetime 20221202-23:13:18
attr datetimef 20221202-231318
attr experiment Default
attr inifile omnetpp.ini
attr iterationvars ""
attr iterationvarsd ""
attr iterationvarsf ""
attr measurement ""
attr network RSUExampleScenario
attr processid 16051
attr repetition 0
attr replication #0
attr resultdir results
attr runnumber 0
attr seedset 0
config image-path ../../../../../inet4.4/images:../../../../../../Documents/Veins/veins/images
config cmdenv-express-mode true
config cmdenv-autoflush true
config cmdenv-status-frequency 1s
config **.cmdenv-log-level info
config image-path ../../images
config network RSUExampleScenario
config debug-on-errors true
config print-undisposed true
config sim-time-limit 200s
config **.scalar-recording true
config **.vector-recording true
config *.playgroundSizeX 2500m
config *.playgroundSizeY 2500m
config *.playgroundSizeZ 50m
config *.annotations.draw true
config *.obstacles.obstacles "xmldoc(\"config.xml\", \"//AnalogueModel[@type='SimpleObstacleShadowing']/obstacles\")"
config *.manager.updateInterval 1s
config *.manager.host "\"localhost\""
config *.manager.port 9999
config *.manager.autoShutdown true
config *.manager.launchConfig "xmldoc(\"erlangen.launchd.xml\")"
config *.rsu[0].mobility.x 2000
config *.rsu[0].mobility.y 2000
config *.rsu[0].mobility.z 3
config *.rsu[*].applType "\"TraCIDemoRSU11p\""
config *.rsu[*].appl.headerLength "80 bit"
config *.rsu[*].appl.sendBeacons false
config *.rsu[*].appl.dataOnSch false
config *.rsu[*].appl.beaconInterval 1s
config *.rsu[*].appl.beaconUserPriority 7
config *.rsu[*].appl.dataUserPriority 5
config *.rsu[*].nic.phy80211p.antennaOffsetZ "0 m"
config *.connectionManager.sendDirect true
config *.connectionManager.maxInterfDist 2600m
config *.connectionManager.drawMaxIntfDist false
config *.**.nic.mac1609_4.useServiceChannel false
config *.**.nic.mac1609_4.txPower 20mW
config *.**.nic.mac1609_4.bitrate 6Mbps
config *.**.nic.phy80211p.minPowerLevel -110dBm
config *.**.nic.phy80211p.useNoiseFloor true
config *.**.nic.phy80211p.noiseFloor -98dBm
config *.**.nic.phy80211p.decider "xmldoc(\"config.xml\")"
config *.**.nic.phy80211p.analogueModels "xmldoc(\"config.xml\")"
config *.**.nic.phy80211p.usePropagationDelay true
config *.**.nic.phy80211p.antenna "xmldoc(\"antenna.xml\", \"/root/Antenna[@id='monopole']\")"
config *.node[*].nic.phy80211p.antennaOffsetY "0 m"
config *.node[*].nic.phy80211p.antennaOffsetZ "1.895 m"
config *.node[*].applType "\"TraCIDemo11p\""
config *.node[*].appl.headerLength "80 bit"
config *.node[*].appl.sendBeacons false
config *.node[*].appl.dataOnSch false
config *.node[*].appl.beaconInterval 1s
config *.node[*].veinsmobility.x 0
config *.node[*].veinsmobility.y 0
config *.node[*].veinsmobility.z 0
config *.node[*].veinsmobility.setHostSpeed false
config *.node[*0].veinsmobility.accidentCount 1
config *.node[*0].veinsmobility.accidentStart 73s
config *.node[*0].veinsmobility.accidentDuration 50s

vector 0 RSUExampleScenario.node[0].veinsmobility posx ETV
vector 1 RSUExampleScenario.node[0].veinsmobility posy ETV
vector 2 RSUExampleScenario.node[0].veinsmobility speed ETV
vector 3 RSUExampleScenario.node[0].veinsmobility acceleration ETV
vector 4 RSUExampleScenario.node[0].veinsmobility co2emission ETV
vector 5 RSUExampleScenario.node[1].veinsmobility posx ETV
vector 6 RSUExampleScenario.node[1].veinsmobility posy ETV
vector 7 RSUExampleScenario.node[1].veinsmobility speed ETV
vector 8 RSUExampleScenario.node[1].veinsmobility acceleration ETV
vector 9 RSUExampleScenario.node[1].veinsmobility co2emission ETV
vector 10 RSUExampleScenario.node[2].veinsmobility posx ETV
vector 11 RSUExampleScenario.node[2].veinsmobility posy ETV
vector 12 RSUExampleScenario.node[2].veinsmobility speed ETV
vector 13 RSUExampleScenario.node[2].veinsmobility acceleration ETV
vector 14 RSUExampleScenario.node[2].veinsmobility co2emission ETV
vector 15 RSUExampleScenario.node[3].veinsmobility posx ETV
vector 16 RSUExampleScenario.node[3].veinsmobility posy ETV
vector 17 RSUExampleScenario.node[3].veinsmobility speed ETV
vector 18 RSUExampleScenario.node[3].veinsmobility acceleration ETV
vector 19 RSUExampleScenario.node[3].veinsmobility co2emission ETV
vector 20 RSUExampleScenario.node[4].veinsmobility posx ETV
vector 21 RSUExampleScenario.node[4].veinsmobility posy ETV
vector 22 RSUExampleScenario.node[4].veinsmobility speed ETV
vector 23 RSUExampleScenario.node[4].veinsmobility acceleration ETV
vector 24 RSUExampleScenario.node[4].veinsmobility co2emission ETV
vector 25 RSUExampleScenario.node[5].veinsmobility posx ETV
vector 26 RSUExampleScenario.node[5].veinsmobility posy ETV
vector 27 RSUExampleScenario.node[5].veinsmobility speed ETV
vector 28 RSUExampleScenario.node[5].veinsmobility acceleration ETV
vector 29 RSUExampleScenario.node[5].veinsmobility co2emission ETV
vector 30 RSUExampleScenario.node[6].veinsmobility posx ETV
vector 31 RSUExampleScenario.node[6].veinsmobility posy ETV
vector 32 RSUExampleScenario.node[6].veinsmobility speed ETV
vector 33 RSUExampleScenario.node[6].veinsmobility acceleration ETV
vector 34 RSUExampleScenario.node[6].veinsmobility co2emission ETV
vector 35 RSUExampleScenario.node[7].veinsmobility posx ETV
vector 36 RSUExampleScenario.node[7].veinsmobility posy ETV
vector 37 RSUExampleScenario.node[7].veinsmobility speed ETV
vector 38 RSUExampleScenario.node[7].veinsmobility acceleration ETV
vector 39 RSUExampleScenario.node[7].veinsmobility co2emission ETV
vector 40 RSUExampleScenario.node[8].veinsmobility posx ETV
vector 41 RSUExampleScenario.node[8].veinsmobility posy ETV
vector 42 RSUExampleScenario.node[8].veinsmobility speed ETV
vector 43 RSUExampleScenario.node[8].veinsmobility acceleration ETV
vector 44 RSUExampleScenario.node[8].veinsmobility co2emission ETV
vector 45 RSUExampleScenario.node[9].veinsmobility posx ETV
vector 46 RSUExampleScenario.node[9].veinsmobility posy ETV
vector 47 RSUExampleScenario.node[9].veinsmobility speed ETV
vector 48 RSUExampleScenario.node[9].veinsmobility acceleration ETV
vector 49 RSUExampleScenario.node[9].veinsmobility co2emission ETV
vector 50 RSUExampleScenario.node[10].veinsmobility posx ETV
vector 51 RSUExampleScenario.node[10].veinsmobility posy ETV
vector 52 RSUExampleScenario.node[10].veinsmobility speed ETV
vector 53 RSUExampleScenario.node[10].veinsmobility acceleration ETV
vector 54 RSUExampleScenario.node[10].veinsmobility co2emission ETV
vector 55 RSUExampleScenario.node[11].veinsmobility posx ETV
vector 56 RSUExampleScenario.node[11].veinsmobility posy ETV
vector 57 RSUExampleScenario.node[11].veinsmobility speed ETV
vector 58 RSUExampleScenario.node[11].veinsmobility acceleration ETV
vector 59 RSUExampleScenario.node[11].veinsmobility co2emission ETV
vector 60 RSUExampleScenario.node[12].veinsmobility posx ETV
vector 61 RSUExampleScenario.node[12].veinsmobility posy ETV
vector 62 RSUExampleScenario.node[12].veinsmobility speed ETV
vector 63 RSUExampleScenario.node[12].veinsmobility acceleration ETV
vector 64 RSUExampleScenario.node[12].veinsmobility co2emission ETV
vector 65 RSUExampleScenario.node[13].veinsmobility posx ETV
vector 66 RSUExampleScenario.node[13].veinsmobility posy ETV
vector 67 RSUExampleScenario.node[13].veinsmobility speed ETV
vector 68 RSUExampleScenario.node[13].veinsmobility acceleration ETV
vector 69 RSUExampleScenario.node[13].veinsmobility co2emission ETV
vector 70 RSUExampleScenario.node[14].veinsmobility posx ETV
vector 71 RSUExampleScenario.node[14].veinsmobility posy ETV
vector 72 RSUExampleScenario.node[14].veinsmobility speed ETV
vector 73 RSUExampleScenario.node[14].veinsmobility acceleration ETV
vector 74 RSUExampleScenario.node[14].veinsmobility co2emission ETV
vector 75 RSUExampleScenario.node[15].veinsmobility posx ETV
vector 76 RSUExampleScenario.node[15].veinsmobility posy ETV
vector 77 RSUExampleScenario.node[15].veinsmobility speed ETV
vector 78 RSUExampleScenario.node[15].veinsmobility acceleration ETV
vector 79 RSUExampleScenario.node[15].veinsmobility co2emission ETV
vector 80 RSUExampleScenario.node[16].veinsmobility posx ETV
vector 81 RSUExampleScenario.node[16].veinsmobility posy ETV
vector 82 RSUExampleScenario.node[16].veinsmobility speed ETV
vector 83 RSUExampleScenario.node[16].veinsmobility acceleration ETV
vector 84 RSUExampleScenario.node[16].veinsmobility co2emission ETV
vector 85 RSUExampleScenario.node[17].veinsmobility posx ETV
vector 86 RSUExampleScenario.node[17].veinsmobility posy ETV
vector 87 RSUExampleScenario.node[17].veinsmobility speed ETV
vector 88 RSUExampleScenario.node[17].veinsmobility acceleration ETV
vector 89 RSUExampleScenario.node[17].veinsmobility co2emission ETV
vector 90 RSUExampleScenario.node[18].veinsmobility posx ETV
vector 91 RSUExampleScenario.node[18].veinsmobility posy ETV
vector 92 RSUExampleScenario.node[18].veinsmobility speed ETV
vector 93 RSUExampleScenario.node[18].veinsmobility acceleration ETV
vector 94 RSUExampleScenario.node[18].veinsmobility co2emission ETV
vector 95 RSUExampleScenario.node[19].veinsmobility posx ETV
vector 96 RSUExampleScenario.node[19].veinsmobility posy ETV
vector 97 RSUExampleScenario.node[19].veinsmobility speed ETV
vector 98 RSUExampleScenario.node[19].veinsmobility acceleration ETV
vector 99 RSUExampleScenario.node[19].veinsmobility co2emission ETV
vector 100 RSUExampleScenario.node[20].veinsmobility posx ETV
vector 101 RSUExampleScenario.node[20].veinsmobility posy ETV
vector 102 RSUExampleScenario.node[20].veinsmobility speed ETV
vector 103 RSUExampleScenario.node[20].veinsmobility acceleration ETV
vector 104 RSUExampleScenario.node[20].veinsmobility co2emission ETV
vector 105 RSUExampleScenario.node[21].veinsmobility posx ETV
vector 106 RSUExampleScenario.node[21].veinsmobility posy ETV
vector 107 RSUExampleScenario.node[21].veinsmobility speed ETV
vector 108 RSUExampleScenario.node[21].veinsmobility acceleration ETV
vector 109 RSUExampleScenario.node[21].veinsmobility co2emission ETV
vector 110 RSUExampleScenario.node[22].veinsmobility posx ETV
vector 111 RSUExampleScenario.node[22].veinsmobility posy ETV
vector 112 RSUExampleScenario.node[22].veinsmobility speed ETV
vector 113 RSUExampleScenario.node[22].veinsmobility acceleration ETV
vector 114 RSUExampleScenario.node[22].veinsmobility co2emission ETV
vector 115 RSUExampleScenario.node[23].veinsmobility posx ETV
vector 116 RSUExampleScenario.node[23].veinsmobility posy ETV
vector 117 RSUExampleScenario.node[23].veinsmobility speed ETV
vector 118 RSUExampleScenario.node[23].veinsmobility acceleration ETV
vector 119 RSUExampleScenario.node[23].veinsmobility co2emission ETV
vector 120 RSUExampleScenario.node[24].veinsmobility posx ETV
vector 121 RSUExampleScenario.node[24].veinsmobility posy ETV
vector 122 RSUExampleScenario.node[24].veinsmobility speed ETV
vector 123 RSUExampleScenario.node[24].veinsmobility acceleration ETV
vector 124 RSUExampleScenario.node[24].veinsmobility co2emission ETV
vector 125 RSUExampleScenario.node[25].veinsmobility posx ETV
vector 126 RSUExampleScenario.node[25].veinsmobility posy ETV
vector 127 RSUExampleScenario.node[25].veinsmobility speed ETV
vector 128 RSUExampleScenario.node[25].veinsmobility acceleration ETV
vector 129 RSUExampleScenario.node[25].veinsmobility co2emission ETV
vector 130 RSUExampleScenario.node[26].veinsmobility posx ETV
vector 131 RSUExampleScenario.node[26].veinsmobility posy ETV
vector 132 RSUExampleScenario.node[26].veinsmobility speed ETV
vector 133 RSUExampleScenario.node[26].veinsmobility acceleration ETV
vector 134 RSUExampleScenario.node[26].veinsmobility co2emission ETV
vector 135 RSUExampleScenario.node[27].veinsmobility posx ETV
vector 136 RSUExampleScenario.node[27].veinsmobility posy ETV
vector 137 RSUExampleScenario.node[27].veinsmobility speed ETV
vector 138 RSUExampleScenario.node[27].veinsmobility acceleration ETV
vector 139 RSUExampleScenario.node[27].veinsmobility co2emission ETV
vector 140 RSUExampleScenario.node[28].veinsmobility posx ETV
vector 141 RSUExampleScenario.node[28].veinsmobility posy ETV
vector 142 RSUExampleScenario.node[28].veinsmobility speed ETV
0	12177 2038 2 204 1 86 86 2140.3234504706 2450.6248001783 201245.58466407 472062315.55903
1	14215 2045 2 204 1 86 86 1578.4613427464 2120.9360540062 165201.39829611 320518299.39456
2	16260 1850 3 204 2 86 85 0 13.999815066161 943.64353906981 12646.834752616
3	18110 1965 4 204 3 86 84 -4.5 2.2078255666373 -4.1061966058897 110.31084190894
4	20075 1829 4 204 3 86 84 0.973 8.9023657158011 192.59749200914 655.68278314597
5	21904 1973 5 204 4 86 83 2144.6335903119 2450.4780716181 194922.00462753 458746836.85195
6	23877 1971 5 204 4 86 83 1578.4506684253 2120.5707901428 158951.55292602 307521462.67811
7	25848 1972 6 204 5 86 82 0.00056220080715219 13.999179182528 939.12778906663 12479.944351493
8	27820 2118 7 204 6 86 81 -4.4608324981877 2.0360211738362 -4.0327027580047 83.793539573996
9	29938 1826 7 204 6 86 81 0.973 8.4455276517466 187.07079524847 624.09822345063
10	31764 1988 8 204 7 86 80 2148.9540163553 2450.659299592 188481.5763554 444907772.34738
11	33752 1987 8 204 7 86 80 1578.4476927174 2120.9591539605 152814.24164416 294938759.78473
12	35739 1969 9 204 8 86 79 0.013689494588939 13.988464023101 933.86718304037 12385.981386752
13	37708 2110 10 204 9 86 78 -4.439656564949 1.9953480610903 -3.9172736680481 79.661924993721
14	39818 1826 10 204 9 86 78 0.973 8.2469806235914 182.999017003 623.33127128522
15	41644 1919 11 204 10 86 77 2153.4185795318 2450.5176811377 182028.39024945 431018459.40593
16	43563 1920 11 204 10 86 77 1578.4548774119 2120.89862148 146648.31762082 282237352.72677
17	45483 1896 12 204 11 86 76 0.18767643011928 13.999869057706 928.84526197755 12327.319514979
18	47379 2028 13 204 12 86 75 -4.4516438954996 2.1600366940722 -3.8200213532349 82.171245949509
19	49407 1747 13 204 12 86 75 0.973 8.3694083781091 180.26699137313 635.98586465229
20	51154 1843 14 204 13 86 74 2162.7382415396 2450.2643256367 175938.30042759 418781558.00835
21	52997 1846 14 204 13 86 74 1578.4413889889 2120.7890396183 139648.01346596 266407246.11712
22	54843 1821 15 204 14 86 73 4.1202440707026 13.999156328384 919.88721913155 11994.65313449
23	56664 1952 16 204 15 86 72 -3.0438156671366 2.2053875824949 0.15623629080292 69.156563191301
24	58616 1735 16 204 15 86 72 0.973 8.3113257001554 172.5189664672 571.87437355864
25	60351 1774 17 204 16 86 71 2177.5970274981 2450.2288519962 169269.61673698 403937016.17218
26	62125 1765 17 204 16 86 71 1578.4544820301 2120.7769512711 133845.02205353 255045253.10056
27	63890 1740 18 204 17 86 70 4.11254450365 13.998410794288 904.14645739488 12010.55070463
28	65630 1864 19 204 18 86 69 -2.7630811355829 2.2240570376068 3.8497836712759 62.616377517659
29	67494 1636 19 204 18 86 69 0.973 8.8530434321966 172.82364321102 632.45668768695
30	69130 1687 20 204 19 86 68 2211.5148856806 2450.4290832727 162712.24069047 389599651.54061
31	70817 1695 20 204 19 86 68 1578.4572625495 2120.8571727062 127421.35811429 241366736.49506
32	72512 1665 21 204 20 86 67 4.067372106413 13.998108282317 870.19777955259 11591.585614945
33	74177 1780 22 204 21 86 66 -4.5 2.2806860777922 9.872851940839 56.642957091451
34	75957 1619 22 204 21 86 66 0.973 7.99669039818 169.07900926863 597.20771959256
35	77576 1622 23 204 22 86 65 2330.7395657356 2450.425700888 156677.61615184 377754876.33678
36	79198 1621 23 204 22 86 65 1578.4561478766 2120.6685398351 119183.26020567 220689557.5759
37	80819 1595 24 204 23 86 64 4.0608742667126 13.988286828815 750.89320832043 9050.8124218194
38	82414 1716 25 204 24 86 63 -4.0902664311319 2.2485621904209 9.8185250025665 43.124429417503
39	84130 1561 25 204 24 86 63 0.973 7.7795198337473 148.51982786049 471.30664701983
40	85691 1546 26 204 25 86 62 2333.8307837447 2450.3331846521 149611.2441532 361106694.27696
41	87237 1546 26 204 25 86 62 1578.4503688179 2120.8352207402 113544.30507078 209931061.5811
42	88783 1523 27 204 26 86 61 4.0643546214392 13.969642005244 731.30752162376 9033.7387983179
43	90306 1608 28 204 27 86 60 -2.5327374308898 2.2114755053329 9.8308599826052 46.547216315245
44	91914 1409 28 204 27 86 60 0.973 8.1424170686949 148.83490831311 567.6638957437
45	93323 1470 29 204 28 86 59 2334.4106986645 2450.5456380536 142517.78014437 344330328.42084
46	94793 1467 29 204 28 86 59 1578.4516975414 2120.7381428564 107840.96651055 198952357.88573
47	96260 1445 30 204 29 86 58 3.8828872453123 13.9821787317 711.90703554807 9026.564037057
48	97705 1520 31 204 30 86 57 -2.0639267666339 2.241401846346 9.8923746476212 47.116802203311
49	99225 1339 31 204 30 86 57 0.973 8.0279260088719 147.08220046084 572.54675561313
50	100564 1393 32 204 31 86 56 2334.1012518223 2450.4185123161 135340.71394915 327156802.75825
51	101957 1396 32 204 31 86 56 1578.4486005865 2120.709696901 102019.84873561 187547856.99606
52	103353 1373 33 204 32 86 55 4.1947202222332 13.995173138522 693.22989480351 9013.9183361126
53	104726 1448 34 204 33 86 54 -3.1648216729014 2.1736677003349 9.593120046468 53.108579317534
54	106174 1295 34 204 33 86 54 0.973 8.1784534517424 145.79848365921 587.80244756902
55	107469 1321 35 204 34 86 53 2334.3047181928 2450.2375759503 128085.45156532 309611328.21292
56	108790 1325 35 204 34 86 53 1578.4356359942 2118.7542653587 95742.335669444 174428498.83442
57	110115 1289 36 204 35 86 52 3.8489417596173 13.991812187003 663.56907648623 8729.2076980208
58	111404 1372 37 204 36 86 51 -3.7795119519133 2.4266907445854 10.116364968984 52.510511998796
59	112776 1251 37 204 36 86 51 0.973 8.5414929895905 138.21652670453 537.04770281111
60	114027 1245 38 204 37 86 50 2333.9422594152 2450.6327858772 120783.8880734 291841175.11174
61	115272 1246 38 204 37 86 50 1578.451217806 2080.8905056398 89243.581384133 160436583.90053
62	116518 1222 39 204 38 86 49 3.9219617499206 13.999427454877 616.67486345477 8025.1885678036
63	117740 1291 40 204 39 86 48 -4.484147937888 2.005882587668 10.012273119643 50.761477526113
64	119031 1177 40 204 39 86 48 0.973 8.3337809675313 130.40571941225 501.37068636554
65	120208 1171 41 204 40 86 47 2334.8575809059 2450.1405621319 113512.61847338 274213711.99743
66	121379 1168 41 204 40 86 47 1578.4448455973 2046.2436218346 83249.940423994 148384326.57345
67	122547 1147 42 204 41 86 46 4.0161385181755 13.984478115658 581.82396691901 7621.4155892917
68	123694 1205 43 204 42 86 45 -2.37 2.099131180218 9.8959225205519 41.252825462062
69	124899 1074 43 204 42 86 45 0.973 7.9216434958082 125.55673323708 501.60384161846
70	125973 1100 44 204 43 86 44 2334.4301713972 2450.5525084347 106212.82260127 256449516.46701
71	127073 1101 44 204 43 86 44 1578.4619682319 2010.3012089245 77299.016728518 136528254.35808
72	128174 1073 45 204 44 86 43 3.9992962979057 13.999378900521 546.57020076253 7204.7747024422
73	129247 1125 46 204 45 86 42 -3.874490280494 2.1025782027747 9.9421956365 51.7522172061
74	130372 1029 46 204 45 86 42 0.973 8.8489569245764 122.04744126308 528.13927114405
75	131401 1023 47 204 46 86 41 2334.3497222776 2450.6591322088 98882.285209315 238537104.12136
76	132424 1021 47 204 46 86 41 1578.4567965213 1970.1029194854 71344.991675251 124698332.18149
77	133445 1000 48 204 47 86 40 4.1510441398274 13.999124200887 506.17563674857 6654.2160205518
78	134445 1043 49 204 48 86 39 -4.4394248623416 2.0949775185599 9.8480800610592 52.881488899942
79	135488 944 49 204 48 86 39 0.973 8.0996331329532 115.73628119099 502.67176542685
80	136432 948 50 204 49 86 38 2334.7865815668 2450.5149737871 91531.39797977 220525512.45479
81	137380 947 50 204 49 86 38 1578.4441374587 1926.4456035867 65420.420911676 113021976.85783
82	138327 923 51 204 50 86 37 3.8447853377257 13.996701665553 461.83170980601 6024.3396538499
83	139250 962 52 204 51 86 36 -4.467785977983 2.078282451923 10.068843496504 51.103228466758
84	140212 867 52 204 51 86 36 0.973 8.6161362223097 108.35117589032 472.88528088319
85	141079 875 53 204 52 86 35 2333.8835802077 2441.6423692077 83773.076078534 200556691.22207
86	141954 873 53 204 52 86 35 1578.4585047252 1804.4297942482 58678.005324553 98512633.100453
87	142827 851 54 204 53 86 34 3.8698786158062 12.051696254104 338.70399106087 3477.2974245698
88	143678 890 55 204 54 86 33 -2.6994206590577 2.1075876856176 8.1009147414554 26.04041500066
89	144568 812 55 204 54 86 33 0.973 7.0081679316487 78.94692016676 262.18706743666
90	145380 800 56 204 55 86 32 2334.6360260849 2440.3101597492 76547.468283602 183148808.27118
91	146180 800 56 204 55 86 32 1578.4678993914 1786.1092871381 53520.916925435 89622529.045013
92	146980 774 57 204 56 86 31 4.0700236807532 13.050162045497 319.35521227981 3425.2549830619
93	147754 793 58 204 57 86 30 -1.9673241697191 2.2792685258412 8.2588660668965 36.655165915013
94	148547 680 58 204 57 86 30 0.973 7.9383681111683 80.309561050049 362.3548025718
95	149227 724 59 204 58 86 29 2334.0026215508 2438.8137571065 69348.502698292 165866839.25405
96	149951 723 59 204 58 86 29 1578.4570502462 1764.223057827 48309.918354768 80561835.582733
97	150674 699 60 204 59 86 28 3.8447639940612 13.95880981739 298.73375666043 3379.7133077635
98	151373 709 61 204 60 86 27 -2.449031687555 2.1769276289176 9.6812017922572 42.199599900828
99	152082 566 61 204 60 86 27 0.973 7.5997217878722 82.495245509286 409.83712019469
100	152648 673 62 204 61 86 26 2334.2278371524 2435.835446939 62118.465410179 148437527.67763
101	153321 675 62 204 61 86 26 1578.4478435991 1738.2228775276 43157.238566941 71701645.662586
102	153996 648 63 204 62 86 25 4.018615917157 13.970749160051 272.28566323657 3171.0386319864
103	154644 656 64 204 63 86 24 -1.9674406469857 2.1492465194734 9.9363633110038 45.304913871615
104	155300 543 64 204 63 86 24 0.973 8.1667304192483 82.908562569749 447.49434776303
105	155843 599 65 204 64 86 23 2333.8928241752 2430.7499611613 54770.966196993 130448593.47039
106	156442 598 65 204 64 86 23 1578.4634011481 1704.7577952696 37926.714554053 62589116.098542
107	157040 570 66 204 65 86 22 4.2842987557744 12.295008240868 237.31642865132 2680.5164070383
108	157610 581 67 204 66 86 21 -3.0055090464511 2.2350418561953 4.9082086936623 33.937043066286
109	158191 526 67 204 66 86 21 0.973 7.3415326447534 58.921034267468 236.69454016583
110	158717 518 68 204 67 86 20 2334.134043377 2416.854075239 47577.554062865 113195695.65381
111	159235 519 68 204 67 86 20 1578.4618975855 1700.3692349484 32885.208354737 54113803.232369
112	159754 493 69 204 68 86 19 4.1832233416825 13.955367659324 221.08212848678 2733.309949358
113	160247 495 70 204 69 86 18 -2.3220548242241 2.1458663539286 5.3725124781783 29.512743322641
114	160742 429 70 204 69 86 18 0.973 7.8311198804753 54.921189059329 263.26882369337
115	161171 442 71 204 70 86 17 2334.5092807864 2414.8737180224 40303.903862671 95566140.262187
116	161613 441 71 204 70 86 17 1578.4517848091 1684.8338876572 27622.118487514 44902065.001766
117	162054 417 72 204 71 86 16 4.0859593419879 10.402920537947 151.75773955584 1492.4115151634
118	162471 419 73 204 72 86 15 -0.075924052584451 1.9185597577179 6.3169611959595 10.954117247042
119	162890 391 73 204 72 86 15 1.5193616351551 6.1139389675705 37.498596936998 122.77317012685
120	163281 359 74 204 73 86 14 2334.045741496 2414.8769514603 33239.633520165 78931014.301148
121	163640 365 74 204 73 86 14 1578.4505975069 1673.6608671881 22647.729345437 36651206.956565
122	164005 338 76 204 74 86 13 4.0735588402093 12.998291028097 134.80684632006 1491.8046597997
123	164343 327 77 204 75 86 12 -0.59127014786565 2.2564944986859 6.795353275987 17.521611494874
124	164670 264 77 204 75 86 12 0.973 8.3392083846763 36.790919949495 185.11023418727
125	164934 287 78 204 76 86 11 2340.0755591472 2414.8732395561 26216.158873247 62487371.472211
126	165221 287 78 204 76 86 11 1578.4519604994 1650.2977472404 17671.38687098 28395442.664853
127	165508 262 79 204 77 86 10 4.0635240824116 13.987120267581 109.83064442973 1330.9129999014
128	165770 246 80 204 78 86 9 -0.076817136641601 2.0509393013455 9.7783028978496 19.351261296159
129	166016 236 80 204 78 86 9 1.7664695463866 8.6102118406059 40.086893465604 232.7979212495
130	166252 210 81 204 79 86 8 2370.5236087899 2414.8461739381 19171.647744961 45945743.091262
131	166462 210 81 204 79 86 8 1578.4618988531 1618.6630192082 12746.687977348 20311294.765542
132	166672 184 82 204 80 86 7 4.0267229073465 13.527684695305 65.384139615367 688.7229051849
133	166856 158 83 204 81 86 6 0.38965139970367 1.9210104491166 9.5009617879586 16.780086926602
134	167014 158 83 204 81 86 6 3.2615939564653 7.7094831312155 32.456940783567 188.40710545667
135	167172 132 84 204 82 86 5 2396.5096841692 2414.8840517174 12033.516079274 28961317.733531
136	167304 132 84 204 82 86 5 1578.4479903299 1592.3427048307 7917.6671249727 12538022.047685
137	167436 106 85 204 83 86 4 3.8169569386458 9.7025965610738 26.873493047651 199.53079420434
138	167542 80 86 204 84 86 3 1.8206609684369 2.1152963028895 5.885639622428 11.590546081205
139	167622 79 86 204 84 86 3 4.1154883535467 6.6086845519608 15.569683676746 84.090930529696
140	167701 54 203 204 85 86 2 2412.1004248629 2414.8924359679 4826.9928608309 11649933.936919
141	167755 54 203 204 85 86 2 1578.4449116765 1579.4701235835 3157.9150352599 4986214.21049
142	167809 27 204 204 86 86 1 3.7923626679825 3.7923626679825 3.7923626679825 14.382014605508

